Version 4
SHEET 1 880 680
WIRE -16 144 -80 144
WIRE 96 144 48 144
WIRE -80 208 -80 144
WIRE 96 208 96 144
WIRE -80 352 -80 288
WIRE 96 352 96 288
FLAG -80 352 0
FLAG 96 352 0
SYMBOL cap 48 128 R90
WINDOW 0 0 32 VBottom 2
WINDOW 3 32 32 VTop 2
SYMATTR InstName C1
SYMATTR Value 270n
SYMBOL res 80 192 R0
SYMATTR InstName R1
SYMATTR Value 56k
SYMBOL voltage -80 192 R0
WINDOW 123 24 124 Left 2
WINDOW 39 0 0 Left 2
SYMATTR InstName V1
SYMATTR Value ""
SYMATTR Value2 AC 1
TEXT -114 376 Left 2 !.ac dec 1000 0.1 100k
